# CIF file generated by openbabel 2.4.1, see http://openbabel.sf.net
data_I
_chemical_name_common 'test.xsf'
_cell_length_a 2.5083
_cell_length_b 2.5083
_cell_length_c 1.68702
_cell_angle_alpha 90
_cell_angle_beta 90
_cell_angle_gamma 90
loop_
    _atom_site_label
    _atom_site_type_symbol
    _atom_site_fract_x
    _atom_site_fract_y
    _atom_site_fract_z
    _atom_site_occupancy
    Xx0     Xx   0.00000   0.00000   0.00000   1.000
    Xx1     Xx   0.94486   0.94486   0.94486   1.000
    Xx2     Xx   0.57791   0.57791   0.00000   1.000
    Xx3     Xx   0.31182   0.31182   0.00000   1.000
    Xx4     Xx   0.36695   0.52277   0.94486   1.000
    Xx5     Xx   0.52277   0.36695   0.94486   1.000
